8
)0102 1 2 3 5 1000 10e-12 10
(0405 4 5 6 5 1000 10e-12 10
(0306 3 6 4 5 1000 10e-12 10
(0704 7 4 5 5 1000 10e-12 10
(0801 8 1 2 5 1000 10e-12 10
(0205 2 5 7 5 1000 10e-12 10
(0602 6 2 8 5 1000 10e-12 10
V0100 1 0 PULSE 0 5 1E-6 10E-9 10E-9 0.5E-6 1E-6 5
.TRAN 10E-6 1E-9 BE 1 UIC
