3
>0102 1 2 5 1000 100e-12 20
>0301 3 1 5 1000 100e-12 20
>0203 2 3 5 1000 100e-12 20
I0002 0 2 1
.TRAN 4E-6 4E-9 BE 1 UIC
