2
L0102 1 2 10E-6
C0200 2 0 100E-12 IC=1
C0100 1 0 100E-12
>0201 2 1 5 1000 10E-12 10
.TRAN 5E-6 5E-9 BE 1 UIC
