2
R0102 1 2 1.9
L0100 1 0 1
C0200 2 0 0.31 IC=1
C0100 1 0 1 IC=1
N0200 2 0 -2 1.1 -1 0.7 1 -0.7 2 -1.1
.TRAN 1000 0.1 BE 1 UIC