16
(0102 1 2 3 5 1000 100E-12 20
(0302 3 2 4 5 1000 100E-12 20
(0402 4 2 1 5 1000 100E-12 20
{0506 5 6 7 5 1000 100E-12 20
{0706 7 6 8 5 1000 100E-12 20
{0806 8 6 5 5 1000 100E-12 20
]0910 9 10 11 5 1000 100E-12 20
]1110 11 10 12 5 1000 100E-12 20
]1210 12 10 9 5 1000 100E-12 20
[1314 13 14 15 5 1000 100E-12 20
[1514 15 14 16 5 1000 100E-12 20
[1614 16 14 13 5 1000 100E-12 20
I0900 9 0 PULSE 0 1E-3 1E-6 1E-9 1E-9 10E-9 1000 1
I0100 1 0 PULSE 0 1E-3 1E-6 1E-9 1E-9 10E-9 1000 1
I0500 5 0 PULSE 0 1E-3 1E-6 1E-9 1E-9 10E-9 1000 1
I1300 13 0 PULSE 0 1E-3 1E-6 1E-9 1E-9 10E-9 1000 1
V1000 10 0 PULSE 0 5 0 4E-6 4E-6 0 8E-6 1
V0200 2 0 PULSE 0 5 0 4E-6 4E-6 0 8E-6 1
V0600 6 0 PULSE 0 5 0 4E-6 4E-6 0 8E-6 1
V1400 14 0 PULSE 0 5 0 4E-6 4E-6 0 8E-6 1
.TRAN 4E-6 4E-9 BE 1 UIC
