18
R0100 1 0 4000
C0200 2 0 1000E-12
C0300 3 0 1000E-12
>0402 4 2 5 1000 10e-12 10
>0503 5 3 5 1000 10e-12 10
)0607 6 7 8 5 1000 10e-12 10
)0907 9 7 10 5 1000 10e-12 10
)0504 5 4 1 5 1000 10e-12 10
)1112 11 12 13 5 1000 10e-12 10
)1106 11 6 14 5 1000 10e-12 10
(0415 4 15 9 5 1000 10e-12 10
(0809 8 9 4 5 1000 10e-12 10
(1609 16 9 7 5 1000 10e-12 10
(0607 6 7 16 5 1000 10e-12 10
(1310 13 10 6 5 1000 10e-12 10
(1106 11 6 17 5 1000 10e-12 10
(1217 12 17 11 5 1000 10e-12 10
(1214 12 14 5 5 1000 10e-12 10
(1805 18 5 12 5 1000 10e-12 10
V1500 15 0 PULSE 0 5 -0.5E-6 0.1E-6 0.1E-6 0.4E-6 1.1E-6 100
V1800 18 0 PULSE 0 5 0 0.1E-6 0.1E-6 0.4E-6 1E-6 100
.TRAN 30E-6 1E-9 BE 1 UIC
