8
R0100 1 0 1000
R0200 2 0 1000
>0304 3 4 5 1000 10E-12 2
>0506 5 6 5 1000 10E-12 2
)0405 4 5 7 5 1000 10E-12 2
)0603 6 3 8 5 1000 10E-12 2
}0807 8 7 2 5 1000 10E-12 2
]0503 5 3 1 5 1000 10E-12 2
V0500 5 0 PULSE 0 5 0 10E-6 10E-6 0 20E-6 1
V0300 3 0 PULSE 0 5 0 1E-6 1E-6 0 2E-6 10
.TRAN 10E-6 10E-9 BE 1 UIC
